<?xml version="1.0" encoding="UTF-8"?>
<routes>
    <vType id="car" accel="2.6" decel="4.5" sigma="0.5" length="5" maxSpeed="50"/>
    <vehicle id="car1" type="car" depart="0">
        <route edges="edge1"/>
    </vehicle>
</routes>